 23
 complex 12:     SCF Done: -1587.23798819 A.U. 
Ni     1.107595 -0.000377 -0.000205
Cl     2.660419 -1.529416 -0.000189
Cl     2.661414  1.527647 -0.000149
N     -0.335965 -1.277449 -0.000077
N     -0.335102  1.277663 -0.000085
C     -0.213937  2.624019 -0.000280
C     -1.319977  3.470154 -0.000085
C     -2.605697  2.920459  0.000353
C     -2.737749  1.533563  0.000534
C     -1.590201  0.731301  0.000292
H      0.817477  2.984098 -0.000565
H     -1.162953  4.549315 -0.000265
H     -3.489938  3.560113  0.000539
H     -3.725368  1.071998  0.000861
C     -0.215713 -2.623888 -0.000246
C     -1.322328 -3.469271 -0.000018
C     -2.607674 -2.918705  0.000429
C     -2.738786 -1.531720  0.000584
C     -1.590695 -0.730237  0.000306
H      0.815456 -2.984667 -0.000539
H     -1.166035 -4.548539 -0.000179
H     -3.492349 -3.557759  0.000644
H     -3.726091 -1.069486  0.000921