39
 complex 16:     SCF Done: -1739.83317345 A.U. 
Zr    -0.000202 -0.354692 -0.000178
Cl    -1.164660 -1.915777 -1.454824
Cl     1.164722 -1.914131  1.456018
C     -1.227633  1.751082  0.705127
C     -2.321196  0.922095  0.272100
C     -2.420682 -0.206836  1.186911
C     -1.382733 -0.065865  2.160307
C     -0.686935  1.140122  1.882298
C      1.228035  1.751046 -0.705564
C      2.321361  0.921849 -0.272348
C      2.420524 -0.207282 -1.186962
C      1.382570 -0.066248 -2.160371
C      0.687107  1.139986 -1.882539
C     -0.766825  3.044279  0.083782
C      0.767457  3.044160 -0.083908
C     -3.263706  1.053277 -0.787562
C     -3.454539 -1.166926  1.017195
H     -1.173645 -0.747020  2.980096
H      0.145624  1.527909  2.468533
C      3.264218  1.053205  0.786965
C      3.453988 -1.167745 -1.016984
H      1.173353 -0.747429 -2.980107
H     -0.145123  1.528134 -2.469010
C     -4.257160  0.104607 -0.914330
C     -4.351274 -1.001616 -0.017174
H     -4.994122  0.198170 -1.714800
H     -5.155295 -1.726916 -0.157448
H     -3.216373  1.904660 -1.470711
H     -3.531728 -2.016256  1.698875
C      4.257392  0.104269  0.913893
C      4.350936 -1.002371  0.017188
H      4.994611  0.197969  1.714110
H      5.154676 -1.727943  0.157667
H      3.217332  1.904858  1.469811
H      3.530786 -2.017332 -1.698389
H     -1.089532  3.909728  0.688246
H     -1.245604  3.164037 -0.901318
H      1.246285  3.163262  0.901215
H      1.090351  3.909733 -0.688073