51
 Complex 4:      SCF Done: -2434.46614933 A.U. 
Pd    -0.000010 -1.356630 -0.000020
Cl     1.777670 -2.944550 -0.048580
Cl    -1.777700 -2.944530  0.048530
P      1.571270  0.257920  0.015810
C      0.705160  1.906550  0.017820
C      2.862660  0.340500  1.398860
C      4.178480 -0.049440  0.690410
C      2.836840  0.216540 -1.389680
P     -1.571270  0.257930 -0.015800
C     -0.705140  1.906560 -0.017830
C     -2.862680  0.340530 -1.398830
C     -2.836810  0.216550  1.389710
C      1.396950  3.130030  0.039100
C      0.699500  4.340810  0.020330
C     -0.699460  4.340810 -0.020390
C     -1.396920  3.130040 -0.039130
C     -4.177490  0.573910  0.714630
C     -4.178500 -0.049390 -0.690360
C      4.177510  0.573880 -0.714570
H     -2.488850  3.141830 -0.069620
H     -1.247950  5.285040 -0.035040
H      1.248000  5.285030  0.034960
H      2.488880  3.141810  0.069570
H     -2.844020 -0.862040  1.624100
C     -2.489210  1.014190  2.645020
H     -5.019380  0.205630  1.323590
H     -4.288070  1.671770  0.648140
H     -5.044920  0.278880 -1.287180
H     -4.222790 -1.147460 -0.607110
H     -2.904900  1.410530 -1.671290
C     -2.530620 -0.493720 -2.637140
H      5.044900  0.278800  1.287250
H      4.222750 -1.147510  0.607160
H      5.019400  0.205590 -1.323510
H      4.288110  1.671730 -0.648070
C      2.489270  1.014220 -2.644970
H      2.844030 -0.862040 -1.624090
H      2.904890  1.410500  1.671320
C      2.530570 -0.493750  2.637170
H      3.345180 -0.406170  3.374350
H      1.602200 -0.155080  3.120280
H      2.411100 -1.553310  2.367970
H      3.267300  0.859780 -3.409420
H      1.531630  0.690450 -3.078560
H      2.426210  2.094650 -2.444570
H     -3.345250 -0.406130 -3.374300
H     -1.602260 -0.155060 -3.120270
H     -2.411160 -1.553280 -2.367950
H     -3.267230  0.859750  3.409480
H     -1.531560  0.690390  3.078580
H     -2.426130  2.094620  2.444640