81
 complex 6:      SCF Done: -3427.89721083 A.U. 
Pd    -0.000170 -2.221105 -0.000488
Cl    -1.638275 -3.883956  0.402502
Cl     1.637853 -3.883912 -0.404058
P      1.702360 -0.679052  0.156787
C      3.135726 -1.352455  1.132396
C      4.456730 -0.974053  0.853150
C      5.509428 -1.468397  1.633039
C      5.249877 -2.337920  2.695868
C      3.932584 -2.723405  2.972729
C      2.880450 -2.243277  2.190076
P     -1.702497 -0.678791 -0.156948
C     -1.193293  0.827647 -1.157734
C     -0.261745  1.770436 -0.702481
C      0.182061  2.818237 -1.588592
C     -0.331823  2.886297 -2.929922
C     -1.280199  1.919037 -3.344525
C     -1.694654  0.923963 -2.488091
C      0.110272  3.920284 -3.801755
C      1.026762  4.860722 -3.378363
C      1.540318  4.798346 -2.059714
C      1.130770  3.805800 -1.190634
C      0.262060  1.770316  0.702713
C      1.193403  0.827269  1.157869
C      1.694738  0.923310  2.488246
C      1.280457  1.918354  3.344805
C      0.332269  2.885840  2.930314
C     -0.181589  2.818059  1.588954
C     -0.109698  3.919770  3.802283
C     -1.026038  4.860404  3.379006
C     -1.539588  4.798287  2.060339
C     -1.130163  3.805813  1.191125
C     -2.454451 -0.091431  1.423944
C     -3.169199  1.114659  1.511546
C     -3.787254  1.476711  2.712539
C     -3.698192  0.636582  3.827904
C     -2.992045 -0.568541  3.740501
C     -2.367316 -0.934646  2.544355
C     -3.136305 -1.351489 -1.132402
C     -4.457105 -0.972668 -0.852737
C     -5.510178 -1.466383 -1.632516
C     -5.251201 -2.335721 -2.695636
C     -3.934122 -2.721639 -2.972909
C     -2.881617 -2.242128 -2.190380
C      2.454801 -0.091297 -1.423729
C      3.169854  1.114655 -1.510696
C      3.788257  1.477033 -2.711412
C      3.699210  0.637375 -3.827132
C      2.992723 -0.567594 -3.740373
C      2.367646 -0.934025 -2.544508
H     -3.241811  1.774628  0.644723
H     -4.334418  2.419685  2.776251
H     -4.181444  0.920948  4.765362
H     -2.924736 -1.229871  4.607095
H     -1.833338 -1.884659  2.461816
H     -4.674478 -0.307633 -0.015782
H     -6.536328 -1.174421 -1.398095
H     -6.074331 -2.723611 -3.299876
H     -3.724947 -3.419036 -3.786797
H     -1.861747 -2.579933 -2.384406
H      1.535771  3.775516 -0.179052
H      2.266799  5.542872 -1.726464
H      1.357481  5.651763 -4.054892
H     -0.293247  3.954162 -4.817130
H     -1.684272  1.969672 -4.359039
H     -2.426516  0.195946 -2.835474
H     -1.535159  3.775714  0.179535
H     -2.265955  5.542968  1.727187
H     -1.356657  5.651392  4.055647
H      0.293786  3.953436  4.817679
H      1.684501  1.968757  4.359342
H      2.426426  0.195083  2.835562
H      3.242407  1.774254 -0.643588
H      4.335667  2.419896 -2.774648
H      4.182741  0.921996 -4.764369
H      2.925424 -1.228542 -4.607257
H      1.833390 -1.883922 -2.462480
H      4.674557 -0.308882  0.016421
H      6.535747 -1.176779  1.398924
H      6.072723 -2.726279  3.300192
H      3.722929 -3.420933  3.786380
H      1.860411 -2.580764  2.383774