57
 complex 7:      SCF Done: -2488.66459823 A.U. 
Pd     0.490792 -1.316685 -0.631897
Cl     2.099360 -2.772271 -1.602939
Cl    -0.947069 -3.107443 -0.290751
N      1.808321  0.275305 -0.752850
C      1.590231  1.513081 -1.087556
C      0.316248  2.240633 -1.223020
C      3.286860  0.084634 -0.584991
O      2.700431  2.255205 -1.340630
H      3.540447 -0.857809 -1.092663
C      3.744748 -0.021356  0.908819
C      3.824365  1.308587 -1.340050
H      4.066013  1.088192 -2.390994
H      4.670208  1.814246 -0.860373
C      5.269676 -0.270307  0.893251
C      3.433011  1.263361  1.700218
C      3.069845 -1.223127  1.597397
H      5.634843 -0.405272  1.923031
H      5.516220 -1.182326  0.327620
H      5.834585  0.568916  0.456754
H      3.784347  1.155869  2.738141
H      3.926978  2.152744  1.277685
H      2.350079  1.456813  1.741959
H      3.469575 -1.334703  2.618251
H      1.979974 -1.088858  1.675544
H      3.247066 -2.156940  1.044081
C      0.368249  3.503545 -1.850971
C     -0.775655  4.286918 -1.994705
C     -1.998396  3.822116 -1.506563
C     -2.065618  2.572511 -0.882819
C     -0.926856  1.766307 -0.728199
H      1.325605  3.859979 -2.229782
H     -0.709370  5.256323 -2.492416
H     -2.904263  4.422000 -1.616043
H     -3.028424  2.206485 -0.522577
P     -1.123414  0.096919  0.076522
C     -1.083167  0.408626  1.898496
C     -2.879530 -0.333539 -0.306991
C     -1.086494 -0.722310  2.737325
C     -1.050018 -0.557844  4.123925
C     -0.992394  0.725782  4.682304
C     -0.976798  1.848908  3.849529
C     -1.024575  1.694386  2.458560
H     -1.114069 -1.723370  2.296585
H     -1.055939 -1.437877  4.770627
H     -0.955707  0.849097  5.766926
H     -0.927298  2.851559  4.280092
H     -1.016120  2.576215  1.814876
C     -3.912509 -0.107700  0.615206
C     -5.236287 -0.402485  0.266488
C     -5.529793 -0.919540 -0.998714
C     -4.497443 -1.150271 -1.916978
C     -3.174298 -0.867182 -1.572962
H     -3.686693  0.288789  1.607091
H     -6.036066 -0.233328  0.990895
H     -6.562296 -1.153068 -1.267832
H     -4.720559 -1.572909 -2.898790
H     -2.365431 -1.083086 -2.273541