# B3LYP/6-31G(d)

title

0 1
H	0.00	0.00	0.00
C	-1.06	0.00	0.00
C	-1.75	0.85	0.85
H	-1.22	1.49	1.49
C	-3.13	0.84	0.84
H	-3.66	1.49	1.49
C	-3.82	0.00	0.00
O	-5.21	0.00	0.00
C	-5.70	0.95	0.95
H	-6.80	0.94	0.94
H	-5.34	0.68	1.95
H	-5.34	1.95	0.68
C	-3.13	-0.85	-0.85
H	-3.66	-1.49	-1.49
C	-1.75	-0.85	-0.85
H	-1.22	-1.49	-1.49


