# B3LYP/6-31G(d)

title

0 1
H	0.00	0.00	0.00
C	-1.10	0.00	0.00
H	-1.47	0.27	-1.00
H	-1.47	-1.00	0.27
C	-1.61	1.03	1.03
C	-1.10	2.43	0.65
H	-1.47	3.16	1.38
H	0.00	2.43	0.65
H	-1.47	2.70	-0.35
C	-3.15	1.03	1.03
H	-3.52	1.76	1.76
H	-3.52	1.30	0.02
H	-3.52	0.02	1.30
C	-1.10	0.65	2.43
H	-1.47	1.38	3.16
H	-1.47	-0.35	2.70
H	0.00	0.65	2.43

