# B3LYP/6-31G(d)

title

0 1
H      0.00     0.00     0.00
C     -1.10     0.00     0.00
H     -1.47     0.27    -1.00
H     -1.47    -1.00     0.27
C     -1.61     1.03     1.03
H     -1.25     0.76     2.03
H     -1.25     2.03     0.76
C     -3.15     1.03     1.03
H     -3.52     1.76     1.76
H     -3.52     1.30     0.02
H     -3.52     0.02     1.30

