 59
 complex 1:      SCF Done: -1558.69707074 A.U. 
Ni     0.017907  2.302521  0.161830
C      1.192139  2.704140  1.461670
C     -1.617542  2.875493  0.645598
C      0.504190  2.970872 -1.434110
O      0.817642  3.419664 -2.456150
O     -2.643406  3.309649  0.966065
O      1.922824  3.016891  2.306090
C     -1.091837 -2.556893  3.802770
C      0.250360 -2.855319  3.119660
C      0.260643 -2.376848  1.654100
C     -0.070623 -0.873802  1.568170
C     -1.422067 -0.567498  2.249910
C     -1.440842 -1.064542  3.706940
P      0.057827  0.016594 -0.106609
C     -1.227496 -0.665728 -1.337650
C     -2.506179  0.197097 -1.390840
C     -3.430103 -0.238051 -2.542230
C     -3.784774 -1.730383 -2.462930
C     -2.517224 -2.592861 -2.384280
C     -1.608010 -2.157105 -1.219740
C      1.726107 -0.486322 -0.881080
C      1.834738 -1.848231 -1.599060
C      3.207567 -1.999793 -2.283380
C      4.362411 -1.817475 -1.287890
C      4.254597 -0.467602 -0.563738
C      2.885992 -0.300738  0.120393
H      1.836746  0.297550 -1.654460
H      1.702592 -2.672053 -0.877815
H      1.039562 -1.954526 -2.353030
H      2.799468 -1.048133  0.928779
H      2.821634  0.690297  0.594771
H      3.269899 -2.986152 -2.772190
H      3.296638 -1.244980 -3.085880
H      5.057502 -0.364307  0.184473
H      4.397329  0.350794 -1.292200
H      5.331755 -1.899734 -1.806130
H      4.333973 -2.634738 -0.543608
H     -0.701717 -0.523881 -2.302730
H     -3.048484  0.108411 -0.432733
H     -2.237456  1.257840 -1.500380
H     -2.149731 -2.316455 -0.271214
H     -0.715660 -2.797612 -1.185560
H     -4.345009  0.376774 -2.534030
H     -2.926272 -0.033745 -3.504910
H     -2.780263 -3.657675 -2.270240
H     -1.956057 -2.508143 -3.333090
H     -4.398704 -2.026709 -3.329230
H     -4.402069 -1.911506 -1.563950
H      0.705721 -0.332386  2.142760
H     -0.477361 -2.960339  1.082430
H      1.244474 -2.584540  1.207600
H     -2.237131 -1.060463  1.690320
H     -1.621216  0.514801  2.215580
H      0.471962 -3.934698  3.158740
H      1.061819 -2.347730  3.672770
H     -2.429574 -0.868517  4.153200
H     -0.710123 -0.479981  4.294930
H     -1.064442 -2.876580  4.857380
H     -1.887378 -3.150484  3.315800