66
Complex 10:     SCF Done: -2478.66260567 A.U. 
Ti    -0.044220 -1.530260 -1.912420
Cl     0.226200 -3.737960 -1.752300
Cl    -0.325410 -0.809730 -4.004500
O     -1.387450 -1.012870 -0.891040
O      1.298790 -0.667790 -1.162590
O     -1.086910  1.816010  1.396410
O      1.008810  1.116930  2.035170
C     -1.863730 -0.090170  0.105830
C     -0.671160  0.898890  0.383750
C      0.629160  0.262190  0.954110
C      1.831690  0.081020 -0.054910
C      0.037880  2.178650  2.216660
C      0.618960  3.518330  1.765060
C     -0.410160  2.187900  3.673370
C     -2.263290 -0.876180  1.362710
C     -1.842110 -2.199760  1.562650
C     -2.206200 -2.893610  2.723180
C     -2.992840 -2.273740  3.697740
C     -3.421730 -0.955760  3.501240
C     -3.064370 -0.262830  2.341540
C     -3.080940  0.615440 -0.519680
C     -4.165950 -0.187820 -0.915490
C     -5.283450  0.375860 -1.531770
C     -5.339820  1.756930 -1.757940
C     -4.269230  2.562280 -1.364050
C     -3.142890  1.996540 -0.751670
C      2.957770 -0.778510  0.548360
C      3.051990 -1.072580  1.916110
C      4.100070 -1.868750  2.397400
C      5.058720 -2.382910  1.521790
C      4.970600 -2.091320  0.154670
C      3.931690 -1.293440 -0.326060
C      2.379730  1.411670 -0.587960
C      3.361300  2.109270  0.135760
C      3.858090  3.328350 -0.333870
C      3.385580  3.867580 -1.535760
C      2.416540  3.174330 -2.267300
C      1.917580  1.953150 -1.798680
H     -0.457450  1.428610 -0.563380
H      0.408700 -0.743170  1.355790
H      0.893410  3.487290  0.702700
H     -0.122690  4.315180  1.921280
H      1.520160  3.756300  2.347530
H     -0.811110  1.203100  3.945570
H      0.442350  2.425400  4.325040
H     -1.189380  2.948420  3.824130
H     -1.247210 -2.704240  0.800080
H     -1.875480 -3.925870  2.857240
H     -3.279930 -2.816970  4.600820
H     -4.046820 -0.465490  4.251130
H     -3.411830  0.758990  2.187690
H     -4.127250 -1.265140 -0.741440
H     -6.114160 -0.264550 -1.836420
H     -6.214870  2.200380 -2.238110
H     -4.303570  3.641110 -1.531980
H     -2.329480  2.648200 -0.433130
H      2.325960 -0.664230  2.619830
H      4.159760 -2.087490  3.466000
H      5.871150 -3.007650  1.899400
H      5.713480 -2.488570 -0.540580
H      3.867440 -1.070070 -1.392710
H      3.740330  1.689060  1.068260
H      4.624450  3.854970  0.239380
H      3.779710  4.816650 -1.905750
H      2.052220  3.575480 -3.215630
H      1.188590  1.406430 -2.398430