45
 complex 17:     SCF Done: -1818.49010885 A.U. 
Zr     0.002493 -0.035474 -0.263561
Cl    -0.917618  1.493426 -1.915247
Cl     1.015003 -1.658808 -1.763247
C     -1.309608 -0.592297  1.808196
C     -2.315841  0.020855  0.983297
C     -2.568510 -0.861778 -0.146688
C     -1.722798 -2.015917 -0.013211
C     -0.981635 -1.842485  1.189254
C      1.288021  0.514469  1.816477
C      2.337503  0.011244  0.972182
C      2.519466  0.951453 -0.124152
C      1.603915  2.044082  0.062390
C      0.877819  1.768800  1.253135
C     -0.764963 -0.076057  3.115678
C      0.777503 -0.090168  3.099111
C     -3.066998  1.224335  1.116751
C     -3.569833 -0.523943 -1.097049
C     -1.749503 -3.239241 -0.877227
H     -0.267122 -2.568676  1.578885
C      3.178462 -1.134216  1.062069
C      3.529893  0.717789 -1.095854
C      1.553425  3.303670 -0.745390
H      0.122227  2.431594  1.676059
C     -4.031996  1.514859  0.174576
C     -4.281946  0.645267 -0.928572
H     -4.624373  2.427143  0.272016
H     -5.056682  0.916116 -1.648763
H     -2.903616  1.888980  1.968195
H     -3.768664 -1.183138 -1.944293
C      4.152998 -1.321474  0.103605
C      4.325433 -0.402642 -0.974089
H      4.811669 -2.190321  0.166540
H      5.108532 -0.593964 -1.710564
H      3.067749 -1.839889  1.888601
H      3.673116  1.418401 -1.920988
H     -1.150106 -0.667862  3.964223
H     -1.123138  0.953458  3.274742
H      1.139161 -1.127766  3.180001
H      1.180610  0.444037  3.977589
H     -2.626550 -3.861646 -0.629139
H     -1.806193 -2.984711 -1.945265
H     -0.846013 -3.846063 -0.732410
H      2.412646  3.949511 -0.495129
H      1.584720  3.098910 -1.824940
H      0.631940  3.866688 -0.545479