 74
 Complex 2:      SCF Done: -1672.87040197 A.U. 
Ni     0.000006 -0.525764  1.665438
C     -0.001359 -2.315630  1.774351
C     -1.467686  0.069068  2.532504
C      1.468155  0.067379  2.532756
O     -0.002228 -3.467024  1.923334
O     -2.370246  0.379948  3.190306
O      2.370696  0.377425  3.191037
C      3.039447  1.441397 -0.348150
C      2.472138  0.175414 -0.637187
C      3.251112 -1.006963 -0.614848
C      4.605647 -0.896533 -0.265631
C      5.177028  0.338310  0.040199
C      4.398030  1.493454 -0.002360
N      1.093652  0.113900 -1.052064
C      0.000049 -0.021253 -0.253791
N     -1.093572  0.113509 -1.052176
C     -0.768011  0.359270 -2.482465
C      0.768185  0.357860 -2.482669
C     -2.471989  0.175936 -0.637185
C     -3.251635 -1.006016 -0.615000
C     -4.606071 -0.894906 -0.265648
C     -5.176725  0.340203  0.040480
C     -4.397085  1.494912 -0.001915
C     -3.038553  1.442177 -0.347820
H     -5.224372 -1.794412 -0.230318
H     -4.850524  2.459313  0.238929
H      1.199111  1.315912 -2.811461
H      5.223439 -1.796386 -0.230216
H      4.852029  2.457654  0.238242
H      1.194429 -0.440675 -3.108508
H     -1.195952 -0.437284 -3.109623
H     -1.197183  1.318771 -2.809408
H      6.232153  0.399317  0.316611
H     -6.231792  0.401750  0.316996
C     -2.675631 -2.369085 -0.984875
H     -1.578724 -2.276277 -0.969565
C     -2.237390  2.739417 -0.419595
H     -1.191947  2.473807 -0.639803
C      2.238946  2.739030 -0.420104
H      1.193379  2.473889 -0.640293
C      2.674374 -2.369813 -0.984379
H      1.577519 -2.276272 -0.969707
C      3.104138 -2.783334 -2.409711
H      4.196762 -2.912121 -2.465355
H      2.636516 -3.739901 -2.691500
H      2.822801 -2.030676 -3.162056
C      3.060795 -3.468720  0.023568
H      2.816198 -3.175594  1.053414
H      2.518564 -4.399311 -0.202914
H      4.137429 -3.697365 -0.019851
C      2.751430  3.645570 -1.560025
H      2.121841  4.544656 -1.650960
H      3.783503  3.978308 -1.367623
H      2.749227  3.125658 -2.530579
C      2.238665  3.503031  0.918472
H      1.625367  4.413978  0.835949
H      1.830499  2.887560  1.731270
H      3.255453  3.812930  1.205743
C     -2.749477  3.646393 -1.559336
H     -3.781340  3.979683 -1.366758
H     -2.119402  4.545146 -1.650224
H     -2.747709  3.126651 -2.529985
C     -2.236651  3.503313  0.919059
H     -1.828428  2.887713  1.731723
H     -1.623129  4.414097  0.836425
H     -3.253290  3.813481  1.206558
C     -3.063401 -3.468284  0.022209
H     -4.140146 -3.696257 -0.022041
H     -2.521599 -4.399087 -0.204430
H     -2.819292 -3.175904  1.052382
C     -3.104832 -2.781528 -2.410703
H     -2.637770 -3.738302 -2.692717
H     -4.197523 -2.909436 -2.467091
H     -2.822439 -2.028683 -3.162464