54
 complex 5:      SCF Done: -1974.74022544 A.U. 
Pd     0.000094 -1.179295 -0.000299
Cl     1.415128 -2.851794 -0.775384
Cl    -1.414900 -2.851962  0.774435
N      1.397970  0.313891 -0.364641
C      1.161119  1.579313 -0.503463
C     -0.000036  2.410210 -0.000608
C      2.834503  0.081617 -0.746367
O      2.126967  2.305617 -1.119756
H      2.873516 -0.862647 -1.305735
C      3.803461 -0.029439  0.486828
C      3.088700  1.307333 -1.629036
H      2.842117  1.134737 -2.687947
H      4.088502  1.745874 -1.542534
C      0.530569  3.312545  1.153264
H     -0.271104  3.982391  1.488892
H      1.375878  3.914375  0.795987
H      0.861696  2.706757  2.008344
N     -1.397779  0.313859  0.364288
C     -1.160808  1.579266  0.503112
C     -2.834072  0.081551  0.746895
O     -2.126270  2.305501  1.120059
H     -2.872704 -0.862783  1.306179
C     -3.803926 -0.029347 -0.485632
C     -3.087708  1.307183  1.629858
H     -2.840446  1.134516  2.688597
H     -4.087562  1.745742  1.544022
C     -0.531080  3.310951 -1.155560
H      0.270281  3.980821 -1.491910
H     -1.376688  3.912784 -0.798979
H     -0.861867  2.704013 -2.009952
C      5.172846 -0.471588 -0.075409
C      3.964515  1.310367  1.233726
C      3.318357 -1.089286  1.493604
H      5.897535 -0.577648  0.746353
H      5.093145 -1.444830 -0.583775
H      5.592649  0.256571 -0.788734
H      4.659058  1.173664  2.076987
H      4.373296  2.114151  0.601976
H      3.008959  1.654597  1.657246
H      4.046631 -1.166908  2.317056
H      2.342658 -0.820556  1.925604
H      3.205748 -2.075305  1.024376
C     -5.172636 -0.472530  0.077416
C     -3.966312  1.310755 -1.231703
C     -3.319033 -1.088389 -1.493347
H     -5.897892 -0.578609 -0.743841
H     -5.092000 -1.445971  0.585255
H     -5.592306  0.255050  0.791412
H     -4.661578  1.174162 -2.074384
H     -4.374874  2.114026 -0.599164
H     -3.011317  1.655630 -1.655943
H     -4.047973 -1.166110 -2.316205
H     -2.343886 -0.818809 -1.926061
H     -3.205356 -2.074544 -1.024675