77
 complex 8:      SCF Done: -3312.53964169 A.U. 
Pd     0.000010 -1.676494 -0.445800
Cl     1.596685 -3.414779 -0.532450
Cl    -1.596630 -3.414805 -0.532588
P     -1.958765 -0.358794 -0.131273
C     -2.183348  1.460981 -0.509380
C     -3.361834  1.982964 -1.073088
C     -3.470159  3.347958 -1.351719
C     -2.407447  4.217277 -1.081912
C     -1.224485  3.739083 -0.505716
C     -1.155802  2.365198 -0.226073
O     -0.000036  1.837203  0.329689
C     -0.000061  4.592964 -0.149810
C     -0.000092  4.861335  1.384039
C     -0.000064  5.939970 -0.888950
C     -2.433219 -0.438793  1.669834
C     -3.031654  0.654703  2.319367
C     -3.383553  0.566612  3.670884
C     -3.142940 -0.611383  4.384756
C     -2.548889 -1.702592  3.741133
C     -2.188176 -1.620010  2.393033
C     -3.427732 -1.012645 -1.062400
C     -4.651211 -1.272029 -0.431264
C     -5.636651 -1.858871 -2.569764
C     -5.750966 -1.699283 -1.185875
C     -4.414196 -1.596266 -3.201547
C     -3.312814 -1.178367 -2.452626
H     -4.190281  1.315166 -1.307426
H     -2.506240  5.276626 -1.324101
H     -4.389271  3.734859 -1.796251
H     -0.000093  3.924446  1.957682
H     -0.893962  5.438715  1.665726
H     -0.000042  5.808591 -1.981187
H     -0.881782  6.534749 -0.609712
H     -4.745788 -1.154021  0.649558
H     -6.494546 -2.195917 -3.155720
H     -6.698411 -1.911106 -0.685058
H     -4.314044 -1.731563 -4.280709
H     -2.353897 -1.002044 -2.945576
H     -3.227524  1.578317  1.772369
H     -3.846772  1.424223  4.164247
H     -3.417387 -0.678764  5.439983
H     -2.357877 -2.627048  4.290569
H     -1.733863 -2.476504  1.890289
P      1.958763 -0.358761 -0.131268
C      2.183311  1.461031 -0.509318
C      3.361792  1.983042 -1.073008
C      3.470096  3.348040 -1.351627
C      2.407361  4.217336 -1.081837
C      1.224396  3.739112 -0.505672
C      1.155737  2.365225 -0.226030
C      2.433266 -0.438870  1.669819
C      3.031693  0.654587  2.319424
C      3.383627  0.566393  3.670925
C      3.143059 -0.611666  4.384707
C      2.549019 -1.702837  3.741010
C      2.188272 -1.620153  2.392925
C      3.427726 -1.012526 -1.062462
C      4.651221 -1.271921 -0.431364
C      5.636641 -1.858598 -2.569918
C      5.750973 -1.699101 -1.186020
C      4.414170 -1.595975 -3.201664
C      3.312790 -1.178152 -2.452699
H      4.190255  1.315261 -1.307341
H      2.506134  5.276687 -1.324023
H      4.389207  3.734962 -1.796143
H      0.893756  5.438734  1.665759
H      0.881631  6.534770 -0.609680
H      4.745813 -1.153981  0.649465
H      6.494533 -2.195586 -3.155910
H      6.698431 -1.910937 -0.685233
H      4.314004 -1.731201 -4.280834
H      2.353862 -1.001816 -2.945621
H      3.227529  1.578251  1.772497
H      3.846838  1.423974  4.164348
H      3.417534 -0.679127  5.439922
H      2.358045 -2.627344  4.290375
H      1.733969 -2.476617  1.890121