# B3LYP/6-31G(d)

title

0 1
H	0.00	0.00	0.00
C	-1.10	0.00	0.00
H	-1.47	-1.00	0.27
C	-1.61	1.03	1.03
H	-1.25	0.76	2.03
H	-1.25	2.03	0.76
C	-3.15	1.03	1.03
H	-3.52	0.02	1.30
H	-3.52	1.76	1.76
C	-3.67	1.40	-0.38
H	-4.77	1.40	-0.38
H	-3.30	2.40	-0.64
C	-3.15	0.38	-1.40
H	-3.52	-0.63	-1.13
H	-3.52	0.64	-2.40
C	-1.61	0.38	-1.40
H	-1.25	-0.36	-2.14
H	-1.25	1.38	-1.67

