# B3LYP/6-31G(d)

title

0 1
H	0.00	0.00	0.00
C	-1.10	0.00	0.00
C	-1.61	1.03	1.03
H	-1.25	0.76	2.03
H	-1.25	2.03	0.76
C	-3.15	1.03	1.03
H	-3.52	1.76	1.76
H	-3.52	1.30	0.02
H	-3.52	0.02	1.30
C	-1.61	0.38	-1.40
H	-1.25	-0.36	-2.14
H	-2.71	0.38	-1.40
C	-1.10	1.78	-1.78
H	-1.47	2.05	-2.78
H	-1.47	2.51	-1.04
H	0.00	1.78	-1.78
C	-1.61	-1.40	0.38
H	-1.25	-1.67	1.38
H	-2.71	-1.40	0.38
C	-1.10	-2.43	-0.65
H	-1.47	-3.43	-0.38
H	-1.47	-2.16	-1.65
H	0.00	-2.43	-0.65

