# B3LYP/6-31G(d)

title

0 1
H	0.00	0.00	0.00
C	-1.10	0.00	0.00
H	-1.47	0.73	0.73
C	-1.61	0.38	-1.40
H	-1.25	1.38	-1.67
H	-1.25	-0.36	-2.14
C	-3.15	0.38	-1.40
H	-3.52	0.64	-2.40
H	-3.52	-0.63	-1.13
H	-3.52	1.11	-0.67
C	-1.61	-1.40	0.38
H	-1.25	-1.67	1.38
H	-2.71	-1.40	0.38
C	-1.10	-2.43	-0.65
H	-1.47	-3.43	-0.38
H	-1.47	-2.16	-1.65
H	0.00	-2.43	-0.65

