# B3LYP/6-31G(d)

title

0 1
H	0.00	0.00	0.00
C	-1.10	0.00	0.00
H	-1.47	0.73	0.73
C	-1.61	0.38	-1.40
H	-2.71	0.38	-1.40
C	-1.10	1.78	-1.78
H	-1.47	2.05	-2.78
H	-1.47	2.51	-1.04
H	0.00	1.78	-1.78
C	-1.10	-0.65	-2.43
H	-1.47	-0.38	-3.43
H	0.00	-0.65	-2.43
H	-1.47	-1.65	-2.16
C	-1.61	-1.40	0.38
H	-1.25	-2.14	-0.36
C	-1.10	-1.78	1.78
H	-1.47	-2.78	2.05
H	0.00	-1.78	1.78
H	-1.47	-1.04	2.51
C	-3.15	-1.40	0.38
H	-3.52	-2.40	0.64
H	-3.52	-0.67	1.11
H	-3.52	-1.13	-0.63

